4
V1 1 0 SIN 0 10 50 0 0 0 5
N1 1 0 -1 0 1 0.01 2 0.02 3 0.03
R1 1 0 1e6
.TRAN 0 0.02 1e-4 1