3
V1 1 0 PULSE 0 5 0 1e-6 1e-6 1e-3 2e-3
R1 1 2 1000
C1 2 0 1e-6
.TRAN 0 0.01 1e-5 1