3
V1 1 0 PULSE 0 10 0 1e-6 1e-6 5e-3 1e-2
$S1 1 2 1 0 1e3 1e-3 5
R1 2 0 1000
Rleak 1 0 1e9
.TRAN 0 0.02 1e-4 1